/*--------------------------------*- C++ -*----------------------------------*\
| =========                 |                                                 |
| \\      /  F ield         | OpenFOAM: The Open Source CFD Toolbox           |
|  \\    /   O peration     | Version:  1.7.1                                 |
|   \\  /    A nd           | Web:      www.OpenFOAM.com                      |
|    \\/     M anipulation  |                                                 |
\*---------------------------------------------------------------------------*/
FoamFile
{
    version     2.0;
    format      ascii;
    class       dictionary;
    location    "constant";
    object      transportProperties;
}
// * * * * * * * * * * * * * * * * * * * * * * * * * * * * * * * * * * * * * //

rho             rho [1 -3 0 0 0 0 0] 6093;

//liquid phase
cpL             cpL [0 2 -2 -1 0 0 0] 381.5;
lambdaL         lambdaL [1 1 -3 -1 0 0 0] 32;
nuL             nuL [0 2 -1 0 0 0 0] 2.97e-07;

//solid phase
cpS             cpS [0 2 -2 -1 0 0 0] 381.5;
lambdaS         lambdaS [1 1 -3 -1 0 0 0] 32;
nuS             nuS [0 2 -1 0 0 0 0] 2.97e-07;

Ts              Ts [0 0 0 1 0 0 0] 302.43;
Tl              Tl [0 0 0 1 0 0 0] 303.43;
Tdim            Tdim [0 0 0 1 0 0 0] 0.1;
hs              hs [0 2 -2 0 0 0 0] 80160;
beta            beta [0 0 0 -1 0 0 0] 1.2e-4;
DCl             DCl [0 0 -1 0 0 0 0] 1.6e06;
DCs             DCs [0 0 0 0 0 0 0] 1e-03;


// ************************************************************************* //
